src/tests/data/grids/RAW/ieee-14-bus_d_rename_ptdf.raw
@!IC, SBASE,REV,XFRRAT,NXFRAT,BASFRQ
0,   100.00, 34,     0,     0, 60.00     / PSS(R)E-34.6    TUE, JAN 16 2024  15:48
 08/19/93 UW ARCHIVE           100.0  1962 W IEEE 14 BUS TES

GENERAL, THRSHZ=0.0001, PQBRAK=0.7, BLOWUP=5.0
GAUSS, ITMX=100, ACCP=1.6, ACCQ=1.6, ACCM=1.0, TOL=0.0001
NEWTON, ITMXN=20, ACCN=1.0, TOLN=0.1, VCTOLQ=0.1, VCTOLV=0.00001, DVLIM=0.99, NDVFCT=0.99
ADJUST, ADJTHR=0.005, ACCTAP=1.0, TAPLIM=0.05, SWVBND=100.0, MXTPSS=99, MXSWIM=10
TYSL, ITMXTY=20, ACCTY=1.0, TOLTY=0.00001
RATING, 1, "RATE1 ", "RATING SET 1                    "
RATING, 2, "RATE2 ", "RATING SET 2                    "
RATING, 3, "RATE3 ", "RATING SET 3                    "
RATING, 4, "RATE4 ", "RATING SET 4                    "
RATING, 5, "RATE5 ", "RATING SET 5                    "
RATING, 6, "RATE6 ", "RATING SET 6                    "
RATING, 7, "RATE7 ", "RATING SET 7                    "
RATING, 8, "RATE8 ", "RATING SET 8                    "
RATING, 9, "RATE9 ", "RATING SET 9                    "
RATING,10, "RATE10", "RATING SET 10                   "
RATING,11, "RATE11", "RATING SET 11                   "
RATING,12, "RATE12", "RATING SET 12                   "
0 / END OF SYSTEM-WIDE DATA, BEGIN BUS DATA
@!   I,'NAME        ', BASKV, IDE,AREA,ZONE,OWNER, VM,        VA,    NVHI,   NVLO,   EVHI,   EVLO
     1,'NODE_1      ', 138.0000,3,   1,   1,   1,1.06000,   0.0000,1.10000,0.90000,1.10000,0.90000
     2,'NODE_2      ', 138.0000,2,   1,   1,   1,1.04338,  -5.0011,1.10000,0.90000,1.10000,0.90000
     3,'NODE_3      ', 138.0000,2,   1,   1,   1,1.01000, -12.8692,1.10000,0.90000,1.10000,0.90000
     4,'NODE_4      ', 138.0000,1,   1,   1,   1,1.00969, -10.3442,1.10000,0.90000,1.10000,0.90000
     5,'NODE_5      ', 138.0000,1,   1,   1,   1,1.00741,  -8.6066,1.10000,0.90000,1.10000,0.90000
     6,'NODE_6      ', 138.0000,2,   1,   1,   1,1.07120, -15.7586,1.10000,0.90000,1.10000,0.90000
     7,'NODE_7      ', 138.0000,1,   1,   1,   1,1.05884, -13.7693,1.10000,0.90000,1.10000,0.90000
     8,'NODE_8      ', 138.0000,2,   1,   1,   1,1.09000, -13.7693,1.10000,0.90000,1.10000,0.90000
     9,'NODE_9      ', 138.0000,1,   1,   1,   1,1.05476, -15.5321,1.10000,0.90000,1.10000,0.90000
    10,'NODE_10     ', 138.0000,1,   1,   1,   1,1.05039, -15.8553,1.10000,0.90000,1.10000,0.90000
    11,'NODE_11     ', 138.0000,1,   1,   1,   1,1.05737, -15.9303,1.10000,0.90000,1.10000,0.90000
    12,'NODE_12     ', 138.0000,1,   1,   1,   1,1.05607, -16.5480,1.10000,0.90000,1.10000,0.90000
    13,'NODE_13     ', 138.0000,1,   1,   1,   1,1.05141, -16.5583,1.10000,0.90000,1.10000,0.90000
    14,'NODE_14     ', 138.0000,1,   1,   1,   1,1.03533, -16.9785,1.10000,0.90000,1.10000,0.90000
0 / END OF BUS DATA, BEGIN LOAD DATA
@!   I,'ID',STAT,AREA,ZONE,      PL,        QL,        IP,        IQ,        YP,        YQ, OWNER,SCALE,INTRPT,  DGENP,     DGENQ, DGENF
     2,'1 ',   1,   1,   1,    21.700,    12.700,     0.000,     0.000,     0.000,     0.000,   1,    1,  0,     0.000,     0.000,   0
     3,'1 ',   1,   1,   1,    94.200,    19.000,     0.000,     0.000,     0.000,     0.000,   1,    1,  0,     0.000,     0.000,   0
     4,'1 ',   1,   1,   1,    47.800,    -3.900,     0.000,     0.000,     0.000,     0.000,   1,    1,  0,     0.000,     0.000,   0
     5,'1 ',   1,   1,   1,     7.600,     1.600,     0.000,     0.000,     0.000,     0.000,   1,    1,  0,     0.000,     0.000,   0
     6,'1 ',   1,   1,   1,    11.200,     7.500,     0.000,     0.000,     0.000,     0.000,   1,    1,  0,     0.000,     0.000,   0
     9,'1 ',   1,   1,   1,    29.500,    16.600,     0.000,     0.000,     0.000,     0.000,   1,    1,  0,     0.000,     0.000,   0
    10,'1 ',   1,   1,   1,     9.000,     5.800,     0.000,     0.000,     0.000,     0.000,   1,    1,  0,     0.000,     0.000,   0
    11,'1 ',   1,   1,   1,     3.500,     1.800,     0.000,     0.000,     0.000,     0.000,   1,    1,  0,     0.000,     0.000,   0
    12,'1 ',   1,   1,   1,     6.100,     1.600,     0.000,     0.000,     0.000,     0.000,   1,    1,  0,     0.000,     0.000,   0
    13,'1 ',   1,   1,   1,    13.500,     5.800,     0.000,     0.000,     0.000,     0.000,   1,    1,  0,     0.000,     0.000,   0
    14,'1 ',   1,   1,   1,    14.900,     5.000,     0.000,     0.000,     0.000,     0.000,   1,    1,  0,     0.000,     0.000,   0
0 / END OF LOAD DATA, BEGIN FIXED SHUNT DATA
@!   I,'ID',STATUS,  GL,        BL
     9,' 1',1,     0.000,    19.000
0 / END OF FIXED SHUNT DATA, BEGIN GENERATOR DATA
@!   I,'ID',      PG,        QG,        QT,        QB,     VS,    IREG,     MBASE,     ZR,         ZX,         RT,         XT,     GTAP,STAT, RMPCT,      PT,        PB,    O1,    F1,  O2,    F2,  O3,    F3,  O4,    F4,WMOD, WPF,NREG
     1,'1 ',   232.697,    -8.309,     0.000,     0.000,1.06000,     1,   615.000, 0.00000E+0, 1.00000E+0, 0.00000E+0, 0.00000E+0,1.00000,1,  100.0, 10000.000,-10000.000,   1,1.0000
     2,'1 ',    40.000,    50.000,    50.000,   -40.000,1.04500,     2,    60.000, 0.00000E+0, 1.00000E+0, 0.00000E+0, 0.00000E+0,1.00000,1,  100.0, 10000.000,-10000.000,   1,1.0000
     3,'1 ',     0.000,    30.691,    40.000,     0.000,1.01000,     3,    60.000, 0.00000E+0, 1.00000E+0, 0.00000E+0, 0.00000E+0,1.00000,1,  100.0, 10000.000,-10000.000,   1,1.0000
     6,'1 ',     0.000,    -6.000,    24.000,    -6.000,1.07000,     6,    25.000, 0.00000E+0, 1.00000E+0, 0.00000E+0, 0.00000E+0,1.00000,1,  100.0, 10000.000,-10000.000,   1,1.0000
     8,'1 ',     0.000,    19.281,    24.000,    -6.000,1.09000,     8,    25.000, 0.00000E+0, 1.00000E+0, 0.00000E+0, 0.00000E+0,1.00000,1,  100.0, 10000.000,-10000.000,   1,1.0000
0 / END OF GENERATOR DATA, BEGIN BRANCH DATA
@!   I,     J,'CKT',     R,          X,         B,                    'N A M E'                 ,   RATE1,   RATE2,   RATE3,   RATE4,   RATE5,   RATE6,   RATE7,   RATE8,   RATE9,  RATE10,  RATE11,  RATE12,    GI,       BI,       GJ,       BJ,STAT,MET,  LEN,  O1,  F1,    O2,  F2,    O3,  F3,    O4,  F4
     1,     2,'1 ', 1.93800E-2, 5.91700E-2,   0.05280,'                                        ',    0.00,    0.00,    0.00,    0.00,    0.00,    0.00,    0.00,    0.00,    0.00,    0.00,    0.00,    0.00,  0.00000,  0.00000,  0.00000,  0.00000,1,1,   0.00,   1,1.0000
     1,     5,'1 ', 5.40300E-2, 2.23040E-1,   0.04920,'                                        ',    0.00,    0.00,    0.00,    0.00,    0.00,    0.00,    0.00,    0.00,    0.00,    0.00,    0.00,    0.00,  0.00000,  0.00000,  0.00000,  0.00000,1,1,   0.00,   1,1.0000
     2,     3,'1 ', 4.69900E-2, 1.97970E-1,   0.04380,'                                        ',    0.00,    0.00,    0.00,    0.00,    0.00,    0.00,    0.00,    0.00,    0.00,    0.00,    0.00,    0.00,  0.00000,  0.00000,  0.00000,  0.00000,1,1,   0.00,   1,1.0000
     2,     4,'1 ', 5.81100E-2, 1.76320E-1,   0.03400,'                                        ',    0.00,    0.00,    0.00,    0.00,    0.00,    0.00,    0.00,    0.00,    0.00,    0.00,    0.00,    0.00,  0.00000,  0.00000,  0.00000,  0.00000,1,1,   0.00,   1,1.0000
     2,     5,'1 ', 5.69500E-2, 1.73880E-1,   0.03460,'                                        ',    0.00,    0.00,    0.00,    0.00,    0.00,    0.00,    0.00,    0.00,    0.00,    0.00,    0.00,    0.00,  0.00000,  0.00000,  0.00000,  0.00000,1,1,   0.00,   1,1.0000
     3,     4,'1 ', 6.70100E-2, 1.71030E-1,   0.01280,'                                        ',    0.00,    0.00,    0.00,    0.00,    0.00,    0.00,    0.00,    0.00,    0.00,    0.00,    0.00,    0.00,  0.00000,  0.00000,  0.00000,  0.00000,1,1,   0.00,   1,1.0000
     4,     5,'1 ', 1.33500E-2, 4.21100E-2,   0.00000,'                                        ',    0.00,    0.00,    0.00,    0.00,    0.00,    0.00,    0.00,    0.00,    0.00,    0.00,    0.00,    0.00,  0.00000,  0.00000,  0.00000,  0.00000,1,1,   0.00,   1,1.0000
     6,    11,'1 ', 9.49800E-2, 1.98900E-1,   0.00000,'                                        ',    0.00,    0.00,    0.00,    0.00,    0.00,    0.00,    0.00,    0.00,    0.00,    0.00,    0.00,    0.00,  0.00000,  0.00000,  0.00000,  0.00000,1,1,   0.00,   1,1.0000
     6,    12,'1 ', 1.22910E-1, 2.55810E-1,   0.00000,'                                        ',    0.00,    0.00,    0.00,    0.00,    0.00,    0.00,    0.00,    0.00,    0.00,    0.00,    0.00,    0.00,  0.00000,  0.00000,  0.00000,  0.00000,1,1,   0.00,   1,1.0000
     6,    13,'1 ', 6.61500E-2, 1.30270E-1,   0.00000,'                                        ',    0.00,    0.00,    0.00,    0.00,    0.00,    0.00,    0.00,    0.00,    0.00,    0.00,    0.00,    0.00,  0.00000,  0.00000,  0.00000,  0.00000,1,1,   0.00,   1,1.0000
     7,     8,'1 ', 0.00000E+0, 1.76150E-1,   0.00000,'                                        ',    0.00,    0.00,    0.00,    0.00,    0.00,    0.00,    0.00,    0.00,    0.00,    0.00,    0.00,    0.00,  0.00000,  0.00000,  0.00000,  0.00000,1,1,   0.00,   1,1.0000
     7,     9,'1 ', 0.00000E+0, 1.10010E-1,   0.00000,'                                        ',    0.00,    0.00,    0.00,    0.00,    0.00,    0.00,    0.00,    0.00,    0.00,    0.00,    0.00,    0.00,  0.00000,  0.00000,  0.00000,  0.00000,1,1,   0.00,   1,1.0000
     9,    10,'1 ', 3.18100E-2, 8.45000E-2,   0.00000,'                                        ',    0.00,    0.00,    0.00,    0.00,    0.00,    0.00,    0.00,    0.00,    0.00,    0.00,    0.00,    0.00,  0.00000,  0.00000,  0.00000,  0.00000,1,1,   0.00,   1,1.0000
     9,    14,'1 ', 1.27110E-1, 2.70380E-1,   0.00000,'                                        ',    0.00,    0.00,    0.00,    0.00,    0.00,    0.00,    0.00,    0.00,    0.00,    0.00,    0.00,    0.00,  0.00000,  0.00000,  0.00000,  0.00000,1,1,   0.00,   1,1.0000
    10,    11,'1 ', 8.20500E-2, 1.92070E-1,   0.00000,'                                        ',    0.00,    0.00,    0.00,    0.00,    0.00,    0.00,    0.00,    0.00,    0.00,    0.00,    0.00,    0.00,  0.00000,  0.00000,  0.00000,  0.00000,1,1,   0.00,   1,1.0000
    12,    13,'1 ', 2.20920E-1, 1.99880E-1,   0.00000,'                                        ',    0.00,    0.00,    0.00,    0.00,    0.00,    0.00,    0.00,    0.00,    0.00,    0.00,    0.00,    0.00,  0.00000,  0.00000,  0.00000,  0.00000,1,1,   0.00,   1,1.0000
    13,    14,'1 ', 1.70930E-1, 3.48020E-1,   0.00000,'                                        ',    0.00,    0.00,    0.00,    0.00,    0.00,    0.00,    0.00,    0.00,    0.00,    0.00,    0.00,    0.00,  0.00000,  0.00000,  0.00000,  0.00000,1,1,   0.00,   1,1.0000
0 / END OF BRANCH DATA, BEGIN SYSTEM SWITCHING DEVICE DATA
@!   I,     J,'CKT',          X,   RATE1,   RATE2,   RATE3,   RATE4,   RATE5,   RATE6,   RATE7,   RATE8,   RATE9,  RATE10,  RATE11,  RATE12, STAT,NSTAT,  MET,STYPE,'NAME'
0 / END OF SYSTEM SWITCHING DEVICE DATA, BEGIN TRANSFORMER DATA
@!   I,     J,     K,'CKT',CW,CZ,CM,     MAG1,        MAG2,NMETR,               'N A M E',               STAT,O1,  F1,    O2,  F2,    O3,  F3,    O4,  F4,     'VECGRP', ZCOD
@!   R1-2,       X1-2,   SBASE1-2,     R2-3,       X2-3,   SBASE2-3,     R3-1,       X3-1,   SBASE3-1, VMSTAR,   ANSTAR
@!WINDV1,  NOMV1,    ANG1,  RATE1-1,  RATE1-2,  RATE1-3,  RATE1-4,  RATE1-5,  RATE1-6,  RATE1-7,  RATE1-8,  RATE1-9, RATE1-10, RATE1-11, RATE1-12,COD1,CONT1,   RMA1,    RMI1,    VMA1,    VMI1, NTP1,TAB1,  CR1,     CX1,   CNXA1,NOD1
@!WINDV2,  NOMV2,    ANG2,  RATE2-1,  RATE2-2,  RATE2-3,  RATE2-4,  RATE2-5,  RATE2-6,  RATE2-7,  RATE2-8,  RATE2-9, RATE2-10, RATE2-11, RATE2-12,COD2,CONT2,   RMA2,    RMI2,    VMA2,    VMI2, NTP2,TAB2,  CR2,     CX2,   CNXA2,NOD2
@!WINDV3,  NOMV3,    ANG3,  RATE3-1,  RATE3-2,  RATE3-3,  RATE3-4,  RATE3-5,  RATE3-6,  RATE3-7,  RATE3-8,  RATE3-9, RATE3-10, RATE3-11, RATE3-12,COD3,CONT3,   RMA3,    RMI3,    VMA3,    VMI3, NTP3,TAB3,  CR3,     CX3,   CNXA3,NOD3
     4,     7,     0,'1 ', 1, 1, 1, 0.00000E+00, 0.00000E+00,2,'                                        ',1,   1,1.0000,   0,1.0000,   0,1.0000,   0,1.0000,'            '
 0.00000E+0, 2.09120E-1,   100.00
0.97800,   0.000,   0.000,     0.00,     0.00,     0.00,     0.00,     0.00,     0.00,     0.00,     0.00,     0.00,     0.00,     0.00,     0.00, 0,      0, 1.50000, 0.51000, 1.50000, 0.51000, 159, 0, 0.00000, 0.00000,  0.000,   0
1.00000,   0.000
     4,     9,     0,'1 ', 1, 1, 1, 0.00000E+00, 0.00000E+00,2,'                                        ',1,   1,1.0000,   0,1.0000,   0,1.0000,   0,1.0000,'            '
 0.00000E+0, 5.56180E-1,   100.00
0.96900,   0.000,   0.000,     0.00,     0.00,     0.00,     0.00,     0.00,     0.00,     0.00,     0.00,     0.00,     0.00,     0.00,     0.00, 0,      0, 1.50000, 0.51000, 1.50000, 0.51000, 159, 0, 0.00000, 0.00000,  0.000,   0
1.00000,   0.000
     5,     6,     0,'1 ', 1, 1, 1, 0.00000E+00, 0.00000E+00,2,'                                        ',1,   1,1.0000,   0,1.0000,   0,1.0000,   0,1.0000,'            '
 0.00000E+0, 2.52020E-1,   100.00
0.87976,   0.000,   2.541,     0.00,     0.00,     0.00,     0.00,     0.00,     0.00,     0.00,     0.00,     0.00,     0.00,     0.00,     0.00, 3,      6,30.50000,-20.5100,30.00000,30.00000, 250, 0, 0.00000, 0.00000,  0.000,   0
1.00000,   0.000
0 / END OF TRANSFORMER DATA, BEGIN AREA DATA
@! I,   ISW,     PDES,      PTOL,    'ARNAME'
   1,     2,     0.000,   999.990,'IEEE14      '
0 / END OF AREA DATA, BEGIN TWO-TERMINAL DC DATA
@!  'NAME',   MDC,     RDC,      SETVL,     VSCHD,     VCMOD,     RCOMP,    DELTI,METER    DCVMIN,CCCITMX, CCCACC
@! IPR,NBR,ANMXR,ANMNR,   RCR,    XCR,  EBASR,  TRR,    TAPR,   TMXR,   TMNR,   STPR,    ICR,   IFR,   ITR,'IDR', XCAPR,NDR
@! IPI,NBI,ANMXI,ANMNI,   RCI,    XCI,  EBASI,  TRI,    TAPI,   TMXI,   TMNI,   STPI,    ICI,   IFI,   ITI,'IDI', XCAPI,NDI
0 / END OF TWO-TERMINAL DC DATA, BEGIN VSC DC LINE DATA
@!  'NAME',   MDC,     RDC,   O1,  F1,    O2,  F2,    O3,  F3,    O4,  F4
@!IBUS,TYPE,MODE,     DCSET,   ACSET,     ALOSS,     BLOSS,   MINLOSS,     SMAX,      IMAX,   PWF,        MAXQ,      MINQ, VSREG,  RMPCT,NREG
0 / END OF VSC DC LINE DATA, BEGIN IMPEDANCE CORRECTION DATA
@!I,   T1,    Re(F1),  Im(F1),    T2,    Re(F2),  Im(F2),    T3,    Re(F3),  Im(F3),    T4,    Re(F4),  Im(F4),    T5,    Re(F5),  Im(F5),    T6,    Re(F6),  Im(F6)
@!     T7,    Re(F7),  Im(F7),    T8,    Re(F8),  Im(F8),    T9,    Re(F9),  Im(F9),    T10,  Re(F10), Im(F10),    T11,  Re(F11), Im(F11),    T12,  Re(F12), Im(F12)
@!      ...
0 / END OF IMPEDANCE CORRECTION DATA, BEGIN MULTI-TERMINAL DC DATA
@!  'NAME',    NCONV,NDCBS,NDCLN,  MDC, VCONV,     VCMOD, VCONVN
@!  IB, N,ANGMX,ANGMN,    RC,      XC,    EBAS,   TR,    TAP,    TPMX,   TPMN,   TSTP,     SETVL,   DCPF,    MARG,CNVCOD
@!IDC, IB,AREA,ZONE,   'DCNAME',  IDC2,   RGRND,OWNER
@!IDC,JDC,'DCCKT',MET,   RDC,        LDC
0 / END OF MULTI-TERMINAL DC DATA, BEGIN MULTI-SECTION LINE DATA
@!   I,     J,'ID',MET,DUM1,  DUM2,  DUM3,  DUM4,  DUM5,  DUM6,  DUM7,  DUM8,  DUM9
0 / END OF MULTI-SECTION LINE DATA, BEGIN ZONE DATA
@! I,   'ZONAME'
   1,'IEEE 14     '
0 / END OF ZONE DATA, BEGIN INTER-AREA TRANSFER DATA
@!ARFROM,ARTO,'TRID', PTRAN
0 / END OF INTER-AREA TRANSFER DATA, BEGIN OWNER DATA
@! I,   'OWNAME'
   1,'1           '
0 / END OF OWNER DATA, BEGIN FACTS DEVICE DATA
@!  'NAME',         I,     J,MODE,   PDES,      QDES,  VSET,      SHMX,      TRMX,   VTMN,   VTMX,   VSMX,      IMX,     LINX,   RMPCT,OWNER,    SET1,      SET2,VSREF, FCREG,   'MNAME'    ,NREG
0 / END OF FACTS DEVICE DATA, BEGIN SWITCHED SHUNT DATA
@!  I,MODSW,ADJM,ST, VSWHI,  VSWLO, SWREG,  RMPCT,   'RMIDNT',      BINIT,N1,     B1, N2,     B2, N3,     B3, N4,     B4, N5,     B5, N6,     B6, N7,     B7, N8,     B8, NREG
0 / END OF SWITCHED SHUNT DATA, BEGIN GNE DATA
@!  'NAME',        'MODEL',     NTERM,BUS1...BUSNTERM,NREAL,NINTG,NCHAR
@!ST,OWNER,NMETR
@! REAL1...REAL(MIN(10,NREAL))
@! INTG1...INTG(MIN(10,NINTG))
@! CHAR1...CHAR(MIN(10,NCHAR))
0 / END OF GNE DATA, BEGIN INDUCTION MACHINE DATA
@!   I,'ID',ST,SC,DC,AREA,ZONE,OWNER,TC,BC,  MBASE, RATEKV,PC,  PSET,      H,       A,       B,       D,       E,     RA,        XA,        XM,        R1,        X1,        R2,        X2,        X3,       E1,    SE1,   E2,    SE2,   IA1,   IA2, XAMULT
0 / END OF INDUCTION MACHINE DATA, BEGIN SUBSTATION DATA
0 / END OF SUBSTATION DATA
Q
